iowa_test_system/240_bus_test_system_EXP_CURRENTS.CSV
Element, I1_1, Ang1_1, I1_2, Ang1_2, I1_3, Ang1_3, I1_4, Ang1_4, Iresid1, AngResid1, I2_1, Ang2_1, I2_2, Ang2_2, I2_3, Ang2_3, I2_4, Ang2_4, Iresid2, AngResid2, I3_1, Ang3_1, I3_2, Ang3_2, I3_3, Ang3_3, I3_4, Ang3_4, Iresid3, AngResid3
Vsource.SOURCE,    10.2034,   166.32,     9.6294,    50.12,    10.4916,   -69.11,          0,     0.00, 8.19807E-13,   123.69,    10.2034,   -13.68,     9.6294,  -129.88,    10.4916,   110.89,          0,     0.00, 8.19807E-13,   -56.31,          0,     0.00,          0,     0.00,          0,     0.00,          0,     0.00,          0,     0.00
Transformer.SUB_XFMR,    10.2034,   -13.68,     9.6294,  -129.88,    10.4916,   110.89,          0,     0.00, 1.27106E-13,    26.57,    55.4139,   138.94,    46.7261,    19.39,    49.3897,  -100.96,    7.87486,   -25.74, 2.51602E-7,   142.95,          0,     0.00,          0,     0.00,          0,     0.00,          0,     0.00,          0,     0.00
Transformer.SUB_REGULATOR_A,    55.4139,   -41.06,    55.4138,   138.94,          0,     0.00,          0,     0.00, 0.000218549,  -120.59,    54.0622,   138.94,    54.0623,   -41.06,          0,     0.00,          0,     0.00, 0.000224011,  -120.59,          0,     0.00,          0,     0.00,          0,     0.00,          0,     0.00,          0,     0.00
Transformer.SUB_REGULATOR_B,    46.7261,  -160.61,    46.7261,    19.39,          0,     0.00,          0,     0.00, 0.00021869,   119.49,    45.5864,    19.39,    45.5864,  -160.61,          0,     0.00,          0,     0.00, 0.000224157,   119.49,          0,     0.00,          0,     0.00,          0,     0.00,          0,     0.00,          0,     0.00
Transformer.SUB_REGULATOR_C,    49.3897,    79.04,    49.3896,  -100.96,          0,     0.00,          0,     0.00, 0.000218682,    -0.54,     48.185,  -100.96,     48.185,    79.04,          0,     0.00,          0,     0.00, 0.000224147,    -0.54,          0,     0.00,          0,     0.00,          0,     0.00,          0,     0.00,          0,     0.00
Transformer.T_1003,   0.649597,   -44.91,   0.649182,  -164.83,   0.649195,    75.14, 0.00106723,    89.00, 2.92177E-9,   144.18,    43.0982,   135.09,    43.0707,    15.17,    43.0715,  -104.86,  0.0708068,   -91.00, 1.93931E-7,   143.71,          0,     0.00,          0,     0.00,          0,     0.00,          0,     0.00,          0,     0.00
Transformer.T_1004,    0.31507,   -56.48,   0.314873,  -176.40,   0.314876,    63.57, 0.00051867,    77.09,  1.9425E-9,   144.47,    20.9036,   123.52,    20.8905,     3.60,    20.8907,  -116.43,  0.0344118,  -102.91, 1.28644E-7,   144.26,          0,     0.00,          0,     0.00,          0,     0.00,          0,     0.00,          0,     0.00
Transformer.T_1005,    0.21729,   -52.20,   0.217155,  -172.12,   0.217156,    67.85, 0.000358599,    81.11, 1.93924E-9,   144.64,    14.4163,   127.80,    14.4074,     7.88,    14.4074,  -112.15,  0.0237917,   -98.89, 1.28519E-7,   144.50,          0,     0.00,          0,     0.00,          0,     0.00,          0,     0.00,          0,     0.00
Transformer.T_1006,   0.394647,   -25.17,   0.394649,   154.83, 1.39179E-6,   -30.60,          0,     0.00, 1.38748E-6,   149.46,    26.1833,   154.83,    26.1833,   -25.17, 0.00009234,   149.40,          0,     0.00, 0.00009234,   149.40,          0,     0.00,          0,     0.00,          0,     0.00,          0,     0.00,          0,     0.00
Transformer.T_1007,   0.331161,   -26.62,   0.331162,   153.38, 4.65751E-7,   -30.78,          0,     0.00, 4.62491E-7,   149.46,    21.9713,   153.38,    21.9713,   -26.62, 0.0000309008,   149.22,          0,     0.00, 0.0000309008,   149.22,          0,     0.00,          0,     0.00,          0,     0.00,          0,     0.00,          0,     0.00
Transformer.T_1008,   0.642026,   -55.20,   0.641633,  -175.11,   0.641626,    64.85, 0.00107187,    77.74, 1.15604E-9,   145.32,    42.5959,   124.80,    42.5699,     4.89,    42.5694,  -115.15,  0.0711147,  -102.26, 7.61119E-8,   144.63,          0,     0.00,          0,     0.00,          0,     0.00,          0,     0.00,          0,     0.00
Transformer.T_1009,   0.758668,   -52.30,   0.758211,  -172.21,   0.758203,    67.75,  0.0012607,    80.60, 1.91777E-9,   145.81,    50.3346,   127.70,    50.3043,     7.79,    50.3037,  -112.25,  0.0836426,   -99.40, 1.26716E-7,   145.30,          0,     0.00,          0,     0.00,          0,     0.00,          0,     0.00,          0,     0.00
Transformer.T_1010,   0.316391,   -52.24,   0.316201,  -172.15,   0.316198,    67.82, 0.000524977,    80.65, 1.15067E-9,   145.81,    20.9913,   127.76,    20.9787,     7.85,    20.9785,  -112.18,  0.0348302,   -99.35,  7.6072E-8,   145.46,          0,     0.00,          0,     0.00,          0,     0.00,          0,     0.00,          0,     0.00
Transformer.T_1011,   0.405867,   -48.90,   0.405867,   131.10,          0,     0.00,          0,     0.00, 1.59959E-6,  -120.61,    13.4742,   131.10,    13.4743,   -48.90,          0,     0.00,          0,     0.00, 0.00010596,  -120.71,    13.4743,   131.10,    13.4742,   -48.90,          0,     0.00,          0,     0.00, 0.000211919,    59.29
Transformer.T_1012,   0.404065,  -170.53,   0.404064,     9.47,          0,     0.00,          0,     0.00, 2.40081E-6,   119.48,    13.4144,     9.47,    13.4144,  -170.53,          0,     0.00,          0,     0.00, 0.000159179,   119.42,    13.4145,     9.47,    13.4144,  -170.53,          0,     0.00,          0,     0.00, 0.000318357,   -60.58
Transformer.T_1013,  0.0657583,   -46.89,  0.0657195,  -166.80,  0.0657193,    73.16, 0.000108385,    85.89, 1.15764E-9,   146.48,    4.36277,   133.11,     4.3602,    13.20,    4.36019,  -106.83, 0.00719094,   -94.11, 7.67573E-8,   146.41,          0,     0.00,          0,     0.00,          0,     0.00,          0,     0.00,          0,     0.00
Transformer.T_1014,  0.0612684,  -173.61,  0.0612678,     6.39,          0,     0.00,          0,     0.00, 1.60054E-6,   119.48,    2.03395,     6.39,    2.03399,  -173.61,          0,     0.00,          0,     0.00, 0.000106232,   119.47,    2.03404,     6.39,    2.03395,  -173.61,          0,     0.00,          0,     0.00, 0.000212464,   -60.53
Transformer.T_1015,  0.0995997,  -162.03,  0.0995994,    17.97,          0,     0.00,          0,     0.00, 1.60054E-6,   119.48,    3.30654,    17.97,    3.30656,  -162.03,          0,     0.00,          0,     0.00, 0.000106216,   119.45,    3.30659,    17.97,    3.30654,  -162.03,          0,     0.00,          0,     0.00, 0.000212432,   -60.55
Transformer.T_1016,   0.421918,    63.56,   0.421916,  -116.44,          0,     0.00,          0,     0.00, 3.20104E-6,    -0.55,     14.007,  -116.44,     14.007,    63.56,          0,     0.00,          0,     0.00, 0.000212293,    -0.60,    14.0071,  -116.44,     14.007,    63.56,          0,     0.00,          0,     0.00, 0.000424585,   179.40
Transformer.T_1017,   0.273339,    73.14,   0.273339,  -106.86,          0,     0.00,          0,     0.00, 2.40078E-6,    -0.55,    9.07443,  -106.86,    9.07448,    73.14,          0,     0.00,          0,     0.00, 0.000159258,    -0.60,    9.07452,  -106.86,    9.07443,    73.14,          0,     0.00,          0,     0.00, 0.000318516,   179.40
Transformer.T_2002,    1.22333,   -50.75,    1.22265,  -170.67,    1.22256,    69.30, 0.00195712,    82.40, 6.73374E-9,   145.01,    81.1627,   129.25,    81.1176,     9.33,    81.1122,  -110.70,   0.129847,   -97.60, 4.47079E-7,   144.61,          0,     0.00,          0,     0.00,          0,     0.00,          0,     0.00,          0,     0.00
Transformer.T_2003,   0.607489,   -44.83,   0.607173,  -164.75,   0.607069,    75.22, 0.000962369,    86.67, 1.44289E-9,   139.57,    40.3045,   135.17,    40.2836,    15.25,    40.2766,  -104.78,  0.0638494,   -93.33, 9.55251E-8,   139.02,          0,     0.00,          0,     0.00,          0,     0.00,          0,     0.00,          0,     0.00
Transformer.T_2005,   0.397333,   -52.27,   0.397139,  -172.20,   0.397035,    67.77, 0.000624369,    77.75, 7.48719E-10,   133.19,    26.3614,   127.73,    26.3486,     7.80,    26.3417,  -112.23,  0.0414245,  -102.25, 4.94515E-8,   132.50,          0,     0.00,          0,     0.00,          0,     0.00,          0,     0.00,          0,     0.00
Transformer.T_2008,   0.280198,   -55.18,   0.280198,   124.82,          0,     0.00,          0,     0.00, 1.59897E-6,  -120.63,    9.30215,   124.82,    9.30219,   -55.18,          0,     0.00,          0,     0.00, 0.000105982,  -120.68,    9.30224,   124.82,    9.30215,   -55.18,          0,     0.00,          0,     0.00, 0.000211965,    59.32
Transformer.T_2009,    0.16515,   -52.23,   0.165149,   127.77,          0,     0.00,          0,     0.00, 1.59897E-6,  -120.63,    5.48269,   127.77,    5.48273,   -52.23,          0,     0.00,          0,     0.00, 0.000106062,  -120.66,    5.48277,   127.77,    5.48269,   -52.23,          0,     0.00,          0,     0.00, 0.000212124,    59.34
Transformer.T_2010,   0.101235,   -52.21,   0.101187,  -172.15,   0.101158,    67.83, 0.000157952,    77.29, 7.14329E-10,   131.16,     6.7165,   127.79,    6.71334,     7.85,    6.71141,  -112.17,  0.0104795,  -102.71, 4.73391E-8,   130.98,          0,     0.00,          0,     0.00,          0,     0.00,          0,     0.00,          0,     0.00
Transformer.T_2011,   0.232781,   -48.88,   0.232674,  -168.82,   0.232601,    71.16, 0.000362549,    80.23, 6.82548E-10,   129.33,    15.4441,   131.12,     15.437,    11.18,    15.4322,  -108.84,  0.0240537,   -99.77, 4.51924E-8,   128.88,          0,     0.00,          0,     0.00,          0,     0.00,          0,     0.00,          0,     0.00
Transformer.T_2014,   0.361555,  -166.89,   0.361554,    13.11,          0,     0.00,          0,     0.00, 2.39916E-6,   119.43,    12.0031,    13.11,    12.0031,  -166.89,          0,     0.00,          0,     0.00, 0.000159103,   119.37,    12.0032,    13.11,    12.0031,  -166.89,          0,     0.00,          0,     0.00, 0.000318205,   -60.63
Transformer.T_2015,   0.199624,  -173.69,   0.199623,     6.31,          0,     0.00,          0,     0.00, 1.59944E-6,   119.43,    6.62719,     6.31,    6.62723,  -173.69,          0,     0.00,          0,     0.00, 0.000106069,   119.39,    6.62727,     6.31,    6.62719,  -173.69,          0,     0.00,          0,     0.00, 0.000212137,   -60.61
Transformer.T_2016,   0.206239,  -162.11,   0.206239,    17.89,          0,     0.00,          0,     0.00, 1.59943E-6,   119.43,    6.84683,    17.89,    6.84685,  -162.11,          0,     0.00,          0,     0.00, 0.000106083,   119.37,    6.84688,    17.89,    6.84683,  -162.11,          0,     0.00,          0,     0.00, 0.000212166,   -60.63
Transformer.T_2017,   0.704158,  -176.55,   0.704157,     3.45,          0,     0.00,          0,     0.00, 1.59941E-6,   119.43,    23.3771,     3.45,    23.3771,  -176.55,          0,     0.00,          0,     0.00, 0.000105725,   119.29,    23.3772,     3.45,    23.3771,  -176.55,          0,     0.00,          0,     0.00, 0.000211451,   -60.71
Transformer.T_2018,   0.360956,  -166.93,   0.360956,    13.07,          0,     0.00,          0,     0.00,  1.5994E-6,   119.43,    11.9832,    13.08,    11.9833,  -166.93,          0,     0.00,          0,     0.00, 0.00010598,   119.34,    11.9833,    13.07,    11.9832,  -166.92,          0,     0.00,          0,     0.00, 0.00021196,   -60.66
Transformer.T_2020,   0.400833,  -168.87,   0.400832,    11.13,          0,     0.00,          0,     0.00, 1.59943E-6,   119.43,    13.3071,    11.13,    13.3071,  -168.87,          0,     0.00,          0,     0.00, 0.000105952,   119.33,    13.3071,    11.13,    13.3071,  -168.87,          0,     0.00,          0,     0.00, 0.000211903,   -60.67
Transformer.T_2022,   0.369771,    64.83,   0.369771,  -115.17,          0,     0.00,          0,     0.00, 1.59999E-6,    -0.60,    12.2759,  -115.17,    12.2759,    64.83,          0,     0.00,          0,     0.00, 0.000105991,    -0.67,    12.2759,  -115.17,    12.2759,    64.83,          0,     0.00,          0,     0.00, 0.000211982,   179.33
Transformer.T_2023,  0.0915014,    77.90,  0.0915012,  -102.10,          0,     0.00,          0,     0.00, 9.59989E-7,    -0.60,    3.03771,  -102.10,    3.03772,    77.90,          0,     0.00,          0,     0.00, 0.0000636837,    -0.62,    3.03773,  -102.10,    3.03771,    77.90,          0,     0.00,          0,     0.00, 0.000127367,   179.38
Transformer.T_2024,    0.31736,    81.20,    0.31736,   -98.80,          0,     0.00,          0,     0.00, 1.59996E-6,    -0.60,    10.5359,   -98.80,     10.536,    81.20,          0,     0.00,          0,     0.00, 0.000106067,    -0.69,     10.536,   -98.80,    10.5359,    81.20,          0,     0.00,          0,     0.00, 0.000212133,   179.31
Transformer.T_2025,   0.358195,    67.76,   0.358195,  -112.24,          0,     0.00,          0,     0.00, 1.59995E-6,    -0.60,    11.8916,  -112.24,    11.8916,    67.76,          0,     0.00,          0,     0.00, 0.000106004,    -0.68,    11.8916,  -112.24,    11.8916,    67.76,          0,     0.00,          0,     0.00, 0.000212007,   179.32
Transformer.T_2028, 6.39456E-6,  -120.64, 4.79592E-6,    59.36,          0,     0.00,          0,     0.00, 1.59864E-6,  -120.64, 2.31877E-12,    78.69, 0.000106146,  -120.64,          0,     0.00,          0,     0.00, 0.000106146,  -120.64, 0.000212292,    59.36,          0,     0.00,          0,     0.00,          0,     0.00, 0.000212292,    59.36
Transformer.T_2029,   0.396211,   -42.22,   0.396033,  -162.16,   0.395887,    77.82, 0.000615486,    86.04, 1.04673E-9,   121.90,     26.287,   137.78,    26.2752,    17.84,    26.2655,  -102.18,  0.0408351,   -93.96, 6.94953E-8,   121.41,          0,     0.00,          0,     0.00,          0,     0.00,          0,     0.00,          0,     0.00
Transformer.T_2030,   0.243724,   -56.51,   0.243613,  -176.45,   0.243523,    63.53, 0.000378393,    71.85,  1.0511E-9,   121.49,      16.17,   123.49,    16.1627,     3.55,    16.1568,  -116.47,  0.0251049,  -108.15, 6.96753E-8,   121.19,          0,     0.00,          0,     0.00,          0,     0.00,          0,     0.00,          0,     0.00
Transformer.T_2031,   0.450024,   -56.57,   0.450023,   123.43,          0,     0.00,          0,     0.00, 1.59862E-6,  -120.64,    14.9401,   123.43,    14.9402,   -56.57,          0,     0.00,          0,     0.00, 0.000105843,  -120.73,    14.9402,   123.43,    14.9401,   -56.57,          0,     0.00,          0,     0.00, 0.000211686,    59.27
Transformer.T_2032,   0.100181,   -55.15,   0.100137,  -175.09,     0.1001,    64.89, 0.000155021,    72.87, 6.17948E-10,   122.14,    6.64659,   124.85,    6.64368,     4.91,    6.64119,  -115.11,  0.0102851,  -107.13, 4.09578E-8,   121.93,          0,     0.00,          0,     0.00,          0,     0.00,          0,     0.00,          0,     0.00
Transformer.T_2034,    0.16562,   -56.51,   0.165548,  -176.45,   0.165484,    63.53, 0.000256525,    71.33, 6.11118E-10,   120.51,    10.9882,   123.49,    10.9834,     3.55,    10.9792,  -116.47,  0.0170194,  -108.67, 4.04809E-8,   120.15,          0,     0.00,          0,     0.00,          0,     0.00,          0,     0.00,          0,     0.00
Transformer.T_2035,    0.17196,   -50.62,   0.171885,  -170.56,   0.171818,    69.42, 0.000266115,    77.07, 1.01261E-9,   119.59,    11.4088,   129.38,    11.4039,     9.44,    11.3994,  -110.58,  0.0176557,  -102.93, 6.71716E-8,   119.36,          0,     0.00,          0,     0.00,          0,     0.00,          0,     0.00,          0,     0.00
Transformer.T_2037,   0.170778,   -48.89,   0.170703,  -168.82,   0.170635,    71.16, 0.000264568,    78.65, 6.02544E-10,   118.19,    11.3304,   131.12,    11.3255,    11.18,     11.321,  -108.84,  0.0175531,  -101.35, 3.99531E-8,   117.81,          0,     0.00,          0,     0.00,          0,     0.00,          0,     0.00,          0,     0.00
Transformer.T_2040,    3.52671,   -47.52,    3.52517,  -167.46,    3.52361,    72.52, 0.00551402,    78.94, 3.90442E-9,   112.18,    233.984,   132.48,    233.881,    12.54,    233.778,  -107.48,   0.365834,  -101.06, 2.64226E-7,   110.60,          0,     0.00,          0,     0.00,          0,     0.00,          0,     0.00,          0,     0.00
Transformer.T_2041,  0.0805093,   -42.16,  0.0804746,  -162.10,  0.0804396,    77.88, 0.000124587,    84.65, 5.8567E-10,   112.18,    5.34146,   137.84,    5.33916,    17.90,    5.33683,  -102.12, 0.00826586,   -95.35, 3.88717E-8,   111.99,          0,     0.00,          0,     0.00,          0,     0.00,          0,     0.00,          0,     0.00
Transformer.T_2042,   0.193025,   -56.52,   0.192942,  -176.46,   0.192857,    63.52, 0.000298951,    70.28, 9.7204E-10,   111.98,    12.8064,   123.48,    12.8009,     3.54,    12.7953,  -116.48,  0.0198343,  -109.72, 6.44839E-8,   111.72,          0,     0.00,          0,     0.00,          0,     0.00,          0,     0.00,          0,     0.00
Transformer.T_2043,   0.276207,   -44.79,   0.276089,  -164.73,   0.275965,    75.25, 0.000428848,    81.87, 9.54228E-10,   111.06,    18.3252,   135.21,    18.3174,    15.27,    18.3092,  -104.75,  0.0284524,   -98.13, 6.33898E-8,   110.69,          0,     0.00,          0,     0.00,          0,     0.00,          0,     0.00,          0,     0.00
Transformer.T_2045,   0.276926,  -164.74,   0.276926,    15.26,          0,     0.00,          0,     0.00, 9.59238E-7,   119.40,    9.19358,    15.26,    9.19359,  -164.74,          0,     0.00,          0,     0.00, 0.0000635143,   119.33,    9.19361,    15.26,    9.19358,  -164.74,          0,     0.00,          0,     0.00, 0.000127029,   -60.67
Transformer.T_2046,   0.888487,  -173.77,   0.888486,     6.23,          0,     0.00,          0,     0.00, 3.19742E-6,   119.40,    29.4965,     6.23,    29.4966,  -173.77,          0,     0.00,          0,     0.00, 0.000211794,   119.31,    29.4967,     6.23,    29.4965,  -173.77,          0,     0.00,          0,     0.00, 0.000423587,   -60.69
Transformer.T_2047,    0.70102,  -164.76,   0.701019,    15.24,          0,     0.00,          0,     0.00, 3.19743E-6,   119.40,    23.2729,    15.24,    23.2729,  -164.76,          0,     0.00,          0,     0.00, 0.000211951,   119.31,     23.273,    15.24,    23.2729,  -164.76,          0,     0.00,          0,     0.00, 0.000423902,   -60.69
Transformer.T_2048,   0.510146,  -175.15,   0.510145,     4.85,          0,     0.00,          0,     0.00, 3.19741E-6,   119.40,     16.936,     4.85,    16.9361,  -175.15,          0,     0.00,          0,     0.00, 0.000212004,   119.35,    16.9362,     4.85,     16.936,  -175.15,          0,     0.00,          0,     0.00, 0.000424008,   -60.65
Transformer.T_2049,   0.464096,    69.37,   0.464096,  -110.63,          0,     0.00,          0,     0.00, 2.39927E-6,    -0.61,    15.4073,  -110.63,    15.4074,    69.37,          0,     0.00,          0,     0.00, 0.000159042,    -0.68,    15.4074,  -110.63,    15.4073,    69.37,          0,     0.00,          0,     0.00, 0.000318084,   179.32
Transformer.T_2050,   0.466566,    81.19,   0.466566,   -98.81,          0,     0.00,          0,     0.00, 2.39924E-6,    -0.61,    15.4894,   -98.81,    15.4894,    81.19,          0,     0.00,          0,     0.00, 0.000159083,    -0.70,    15.4894,   -98.81,    15.4894,    81.19,          0,     0.00,          0,     0.00, 0.000318166,   179.30
Transformer.T_2051,   0.775364,    66.21,   0.775363,  -113.79,          0,     0.00,          0,     0.00, 2.39921E-6,    -0.61,     25.741,  -113.79,    25.7411,    66.21,          0,     0.00,          0,     0.00, 0.000158845,    -0.72,    25.7411,  -113.79,     25.741,    66.21,          0,     0.00,          0,     0.00, 0.00031769,   179.28
Transformer.T_2052,    1.79997,   -54.09,    1.79922,  -174.04,     1.7984,    65.95, 0.00279839,    72.22,  2.7863E-9,   112.37,    119.421,   125.91,    119.371,     5.96,    119.317,  -114.05,   0.185662,  -107.78, 1.86896E-7,   111.04,          0,     0.00,          0,     0.00,          0,     0.00,          0,     0.00,          0,     0.00
Transformer.T_2053,   0.193328,   -55.19,    0.19324,  -175.13,   0.193147,    64.85, 0.000304694,    71.79, 2.91942E-9,   103.53,    12.8263,   124.81,    12.8205,     4.87,    12.8143,  -115.15,  0.0202153,  -108.21, 1.93975E-7,   103.40,          0,     0.00,          0,     0.00,          0,     0.00,          0,     0.00,          0,     0.00
Transformer.T_2054,   0.983801,   -56.62,     0.9838,   123.38,          0,     0.00,          0,     0.00, 2.39701E-6,  -120.65,    32.6608,   123.38,    32.6609,   -56.62,          0,     0.00,          0,     0.00, 0.000158559,  -120.78,     32.661,   123.38,    32.6608,   -56.62,          0,     0.00,          0,     0.00, 0.000317118,    59.22
Transformer.T_2055,   0.547508,   -46.98,   0.547507,   133.02,          0,     0.00,          0,     0.00, 3.19599E-6,  -120.65,    18.1765,   133.02,    18.1765,   -46.98,          0,     0.00,          0,     0.00, 0.000211922,  -120.72,    18.1766,   133.02,    18.1765,   -46.98,          0,     0.00,          0,     0.00, 0.000423844,    59.28
Transformer.T_2056,   0.635037,   -53.87,   0.635036,   126.13,          0,     0.00,          0,     0.00, 1.59799E-6,  -120.65,    21.0823,   126.14,    21.0824,   -53.87,          0,     0.00,          0,     0.00, 0.000105689,  -120.79,    21.0824,   126.13,    21.0823,   -53.86,          0,     0.00,          0,     0.00, 0.000211377,    59.21
Transformer.T_2058,    1.38033,   -50.83,    1.37974,  -170.77,    1.37903,    69.21, 0.00219158,    75.59, 3.68821E-9,   102.28,    91.5795,   129.17,      91.54,     9.23,    91.4933,  -110.79,   0.145403,  -104.41, 2.47048E-7,   101.67,          0,     0.00,          0,     0.00,          0,     0.00,          0,     0.00,          0,     0.00
Transformer.T_2059,   0.361431,  -176.51,    0.36143,     3.49,          0,     0.00,          0,     0.00, 1.59864E-6,   119.40,     11.999,     3.49,     11.999,  -176.51,          0,     0.00,          0,     0.00, 0.000105904,   119.33,    11.9991,     3.49,     11.999,  -176.51,          0,     0.00,          0,     0.00, 0.000211808,   -60.67
Transformer.T_2060,   0.252669,  -168.86,   0.252669,    11.14,          0,     0.00,          0,     0.00, 1.59864E-6,   119.40,    8.38823,    11.15,    8.38827,  -168.85,          0,     0.00,          0,     0.00, 0.00010599,   119.34,     8.3883,    11.14,    8.38823,  -168.85,          0,     0.00,          0,     0.00, 0.000211981,   -60.66
Transformer.T_3002,    0.87024,   -50.78,   0.868967,  -170.69,   0.869352,    69.30, 0.00157737,    93.71, 1.96736E-9,   120.94,     57.737,   129.22,    57.6526,     9.31,    57.6781,  -110.70,   0.104652,   -86.29, 1.30738E-7,   120.25,          0,     0.00,          0,     0.00,          0,     0.00,          0,     0.00,          0,     0.00
Transformer.T_3004,   0.142598,   -56.49,   0.142394,  -176.40,   0.142456,    63.58, 0.000255048,    87.41, 1.96737E-9,   120.94,    9.46076,   123.51,    9.44723,     3.60,    9.45132,  -116.42,  0.0169214,   -92.59, 1.30532E-7,   120.83,          0,     0.00,          0,     0.00,          0,     0.00,          0,     0.00,          0,     0.00
Transformer.T_3006,   0.182826,   -55.18,   0.182441,  -175.09,   0.182582,    64.91, 0.000363915,    95.05,  2.7634E-9,   113.11,    12.1297,   124.82,    12.1042,     4.91,    12.1135,  -115.09,  0.0241444,   -84.95, 1.83445E-7,   112.99,          0,     0.00,          0,     0.00,          0,     0.00,          0,     0.00,          0,     0.00
Transformer.T_3007,    0.43245,   -56.56,   0.431537,  -176.46,   0.431871,    63.54, 0.000862431,    93.73, 4.60566E-9,   113.10,    28.6913,   123.44,    28.6307,     3.54,    28.6529,  -116.46,   0.057219,   -86.27, 3.05871E-7,   112.96,          0,     0.00,          0,     0.00,          0,     0.00,          0,     0.00,          0,     0.00
Transformer.T_3009,   0.540361,   -52.31,    0.54036,   127.69,          0,     0.00,          0,     0.00, 2.39321E-6,  -120.67,    17.9392,   127.69,    17.9393,   -52.31,          0,     0.00,          0,     0.00, 0.00015859,  -120.74,    17.9393,   127.69,    17.9392,   -52.31,          0,     0.00,          0,     0.00, 0.00031718,    59.26
Transformer.T_3010,   0.656467,   -52.32,   0.656466,   127.68,          0,     0.00,          0,     0.00, 2.39314E-6,  -120.67,    21.7938,   127.68,    21.7938,   -52.32,          0,     0.00,          0,     0.00, 0.000158519,  -120.76,    21.7939,   127.68,    21.7938,   -52.32,          0,     0.00,          0,     0.00, 0.000317038,    59.24
Transformer.T_3011,   0.967087,   -49.01,   0.967086,   130.99,          0,     0.00,          0,     0.00, 2.39311E-6,  -120.67,     32.106,   130.99,     32.106,   -49.01,          0,     0.00,          0,     0.00, 0.00015836,  -120.81,    32.1061,   130.99,     32.106,   -49.01,          0,     0.00,          0,     0.00, 0.000316719,    59.19
Transformer.T_3012,   0.494698,   -50.67,   0.494697,   129.33,          0,     0.00,          0,     0.00,  3.1908E-6,  -120.67,    16.4232,   129.33,    16.4233,   -50.67,          0,     0.00,          0,     0.00, 0.00021159,  -120.73,    16.4234,   129.33,    16.4232,   -50.67,          0,     0.00,          0,     0.00, 0.00042318,    59.27
Transformer.T_3013,     0.3263,  -166.91,     0.3263,    13.09,          0,     0.00,          0,     0.00,  1.5989E-6,   119.43,    10.8327,    13.09,    10.8327,  -166.91,          0,     0.00,          0,     0.00, 0.000105967,   119.35,    10.8328,    13.09,    10.8327,  -166.91,          0,     0.00,          0,     0.00, 0.000211935,   -60.65
Transformer.T_3014,   0.416267,  -173.70,   0.416266,     6.30,          0,     0.00,          0,     0.00, 2.39834E-6,   119.43,    13.8194,     6.30,    13.8195,  -173.70,          0,     0.00,          0,     0.00, 0.000158998,   119.38,    13.8195,     6.30,    13.8194,  -173.70,          0,     0.00,          0,     0.00, 0.000317997,   -60.62
Transformer.T_3016,    0.85752,  -176.52,   0.857519,     3.48,          0,     0.00,          0,     0.00, 2.39813E-6,   119.43,    28.4685,     3.48,    28.4685,  -176.52,          0,     0.00,          0,     0.00, 0.00015871,   119.32,    28.4686,     3.48,    28.4685,  -176.52,          0,     0.00,          0,     0.00, 0.00031742,   -60.68
Transformer.T_3017,    1.09117,  -166.93,    1.09117,    13.08,          0,     0.00,          0,     0.00, 6.39495E-6,   119.43,    36.2252,    13.08,    36.2253,  -166.92,          0,     0.00,          0,     0.00, 0.000423991,   119.34,    36.2254,    13.07,    36.2252,  -166.92,          0,     0.00,          0,     0.00, 0.000847983,   -60.66
Transformer.T_3018,   0.703482,    69.37,   0.703481,  -110.63,          0,     0.00,          0,     0.00, 2.39598E-6,    -0.58,    23.3546,  -110.63,    23.3547,    69.37,          0,     0.00,          0,     0.00, 0.000158688,    -0.68,    23.3547,  -110.63,    23.3546,    69.37,          0,     0.00,          0,     0.00, 0.000317375,   179.32
Transformer.T_3019,   0.702819,    71.12,   0.702818,  -108.88,          0,     0.00,          0,     0.00, 2.39592E-6,    -0.58,    23.3326,  -108.88,    23.3327,    71.12,          0,     0.00,          0,     0.00, 0.000158693,    -0.68,    23.3327,  -108.88,    23.3326,    71.12,          0,     0.00,          0,     0.00, 0.000317385,   179.32
Transformer.T_3020,   0.811646,    64.87,   0.811644,  -115.13,          0,     0.00,          0,     0.00, 6.38897E-6,    -0.58,    26.9453,  -115.13,    26.9455,    64.87,          0,     0.00,          0,     0.00, 0.000423687,    -0.63,    26.9456,  -115.13,    26.9453,    64.87,          0,     0.00,          0,     0.00, 0.000847373,   179.37
Transformer.T_3021,    1.05133,    64.79,    1.05133,  -115.21,          0,     0.00,          0,     0.00, 2.39584E-6,    -0.58,    34.9026,  -115.21,    34.9027,    64.79,          0,     0.00,          0,     0.00, 0.000158449,    -0.71,    34.9027,  -115.21,    34.9026,    64.79,          0,     0.00,          0,     0.00, 0.000316898,   179.29
Transformer.T_3023,   0.542285,   -38.88,   0.542284,   141.12,          0,     0.00,          0,     0.00, 3.19006E-6,  -120.69,    18.0031,   141.12,    18.0031,   -38.88,          0,     0.00,          0,     0.00, 0.00021157,  -120.77,    18.0032,   141.12,    18.0031,   -38.88,          0,     0.00,          0,     0.00, 0.000423141,    59.23
Transformer.T_3024,    0.66798,   -52.35,   0.667979,   127.65,          0,     0.00,          0,     0.00, 2.39251E-6,  -120.69,     22.176,   127.65,     22.176,   -52.35,          0,     0.00,          0,     0.00, 0.00015847,  -120.78,    22.1761,   127.65,     22.176,   -52.35,          0,     0.00,          0,     0.00, 0.00031694,    59.22
Transformer.T_3025,    0.84351,   -47.06,   0.843509,   132.94,          0,     0.00,          0,     0.00, 3.18998E-6,  -120.69,    28.0034,   132.94,    28.0034,   -47.06,          0,     0.00,          0,     0.00, 0.000211369,  -120.79,    28.0035,   132.94,    28.0034,   -47.06,          0,     0.00,          0,     0.00, 0.000422739,    59.21
Transformer.T_3026,    1.29939,   -42.39,    1.29939,   137.61,          0,     0.00,          0,     0.00, 2.39252E-6,  -120.69,    43.1381,   137.61,    43.1381,   -42.39,          0,     0.00,          0,     0.00, 0.000158205,  -120.91,    43.1381,   137.61,    43.1381,   -42.39,          0,     0.00,          0,     0.00, 0.000316409,    59.09
Transformer.T_3027,   0.897386,   -42.25,   0.897385,   137.75,          0,     0.00,          0,     0.00, 6.37983E-6,  -120.69,    29.7919,   137.75,     29.792,   -42.25,          0,     0.00,          0,     0.00, 0.000423144,  -120.77,    29.7921,   137.75,    29.7919,   -42.25,          0,     0.00,          0,     0.00, 0.000846289,    59.23
Transformer.T_3028,    1.51355,   -56.63,    1.51354,   123.37,          0,     0.00,          0,     0.00, 6.37972E-6,  -120.69,    50.2475,   123.37,    50.2477,   -56.63,          0,     0.00,          0,     0.00,  0.0004226,  -120.79,    50.2478,   123.37,    50.2475,   -56.63,          0,     0.00,          0,     0.00, 0.000845199,    59.21
Transformer.T_3029,   0.342556,   -56.57,   0.342555,   123.43,          0,     0.00,          0,     0.00, 2.39239E-6,  -120.69,    11.3723,   123.43,    11.3724,   -56.57,          0,     0.00,          0,     0.00, 0.000158641,  -120.73,    11.3724,   123.43,    11.3723,   -56.57,          0,     0.00,          0,     0.00, 0.000317282,    59.27
Transformer.T_3031,   0.179837,   -42.24,   0.179411,  -162.13,   0.179608,    77.86, 0.000389345,   110.13, 3.22719E-9,   118.76,    11.9315,   137.76,    11.9032,    17.87,    11.9163,  -102.14,  0.0258315,   -69.87, 2.14284E-7,   118.67,          0,     0.00,          0,     0.00,          0,     0.00,          0,     0.00,          0,     0.00
Transformer.T_3032,   0.262167,   -56.59,   0.261529,  -176.47,   0.261838,    63.53, 0.000578907,    96.48, 3.33896E-9,   119.95,    17.3937,   123.41,    17.3514,     3.53,    17.3719,  -116.47,  0.0384083,   -83.52, 2.21639E-7,   119.80,          0,     0.00,          0,     0.00,          0,     0.00,          0,     0.00,          0,     0.00
Transformer.T_3033,   0.431103,   -50.77,   0.430007,  -170.64,    0.43057,    69.35, 0.000983967,   103.24, 3.51433E-9,   121.63,     28.602,   129.23,    28.5293,     9.36,    28.5666,  -110.65,  0.0652824,   -76.76, 2.33441E-7,   121.40,          0,     0.00,          0,     0.00,          0,     0.00,          0,     0.00,          0,     0.00
Transformer.T_3034,   0.199164,   -38.92,   0.198649,  -158.79,   0.198923,    81.20, 0.000461046,   115.25, 3.63202E-9,   122.66,    13.2138,   141.08,    13.1796,    21.22,    13.1978,   -98.80,  0.0305886,   -64.75, 2.41184E-7,   122.56,          0,     0.00,          0,     0.00,          0,     0.00,          0,     0.00,          0,     0.00
Transformer.T_3035,   0.475331,   -49.01,   0.474228,  -168.90,   0.474708,    71.09,  0.0010125,   102.93, 3.10003E-9,   117.07,    31.5363,   130.99,    31.4632,    11.10,     31.495,  -108.91,  0.0671754,   -77.07, 2.06034E-7,   116.80,          0,     0.00,          0,     0.00,          0,     0.00,          0,     0.00,          0,     0.00
Transformer.T_3036,   0.173039,   -47.00,   0.172647,  -166.90,    0.17281,    73.10, 0.000361746,   103.93, 3.04745E-9,   115.82,    11.4805,   133.00,    11.4544,    13.10,    11.4653,  -106.90,  0.0240004,   -76.07, 2.02329E-7,   115.72,          0,     0.00,          0,     0.00,          0,     0.00,          0,     0.00,          0,     0.00
Transformer.T_3037,   0.324805,   -52.32,   0.324069,  -172.22,   0.324369,    67.78, 0.000677253,    98.46, 3.02162E-9,   115.17,    21.5495,   127.68,    21.5007,     7.78,    21.5206,  -112.22,  0.0449331,   -81.54, 2.00684E-7,   114.99,          0,     0.00,          0,     0.00,          0,     0.00,          0,     0.00,          0,     0.00
Transformer.T_3038,   0.263838,   -47.03,   0.263249,  -166.93,   0.263479,    73.07, 0.000543718,   103.00, 2.97479E-9,   113.95,    17.5046,   132.97,    17.4655,    13.07,    17.4808,  -106.93,  0.0360736,   -77.00, 1.97588E-7,   113.81,          0,     0.00,          0,     0.00,          0,     0.00,          0,     0.00,          0,     0.00
Transformer.T_3039,   0.209184,   -42.25,   0.208723,  -162.15,   0.208895,    77.86, 0.000426317,   107.09, 2.93237E-9,   112.78,    13.8785,   137.76,    13.8479,    17.85,    13.8593,  -102.14,  0.0282845,   -72.91,  1.9476E-7,   112.67,          0,     0.00,          0,     0.00,          0,     0.00,          0,     0.00,          0,     0.00
Transformer.T_3041,   0.668674,    75.25,   0.668673,  -104.75,          0,     0.00,          0,     0.00, 3.19374E-6,    -0.59,     22.199,  -104.75,    22.1991,    75.25,          0,     0.00,          0,     0.00, 0.000211722,    -0.68,    22.1991,  -104.75,     22.199,    75.25,          0,     0.00,          0,     0.00, 0.000423445,   179.32
Transformer.T_3042,   0.964176,    81.12,   0.964175,   -98.88,          0,     0.00,          0,     0.00, 2.39526E-6,    -0.59,    32.0094,   -98.88,    32.0094,    81.12,          0,     0.00,          0,     0.00, 0.000158583,    -0.77,    32.0094,   -98.88,    32.0094,    81.12,          0,     0.00,          0,     0.00, 0.000317167,   179.23
Transformer.T_3043,   0.874056,    75.19,   0.874056,  -104.81,          0,     0.00,          0,     0.00, 2.39523E-6,    -0.59,    29.0175,  -104.81,    29.0175,    75.19,          0,     0.00,          0,     0.00, 0.00015858,    -0.74,    29.0176,  -104.81,    29.0175,    75.19,          0,     0.00,          0,     0.00, 0.00031716,   179.26
Transformer.T_3044,   0.553184,    66.26,   0.553183,  -113.74,          0,     0.00,          0,     0.00, 2.39532E-6,    -0.59,    18.3649,  -113.74,     18.365,    66.26,          0,     0.00,          0,     0.00, 0.000158717,    -0.67,     18.365,  -113.74,    18.3649,    66.26,          0,     0.00,          0,     0.00, 0.000317435,   179.33
Transformer.T_3045,   0.564688,    75.24,   0.564688,  -104.76,          0,     0.00,          0,     0.00,  2.3953E-6,    -0.59,    18.7469,  -104.75,    18.7469,    75.24,          0,     0.00,          0,     0.00, 0.000158746,    -0.68,    18.7469,  -104.76,    18.7469,    75.25,          0,     0.00,          0,     0.00, 0.000317493,   179.32
Transformer.T_3047,   0.450249,   -50.75,   0.449209,  -170.64,   0.449681,    69.36, 0.00096004,   102.10, 3.09683E-9,   118.57,    29.8723,   129.25,    29.8032,     9.36,    29.8346,  -110.64,   0.063695,   -77.90, 2.05766E-7,   118.31,          0,     0.00,          0,     0.00,          0,     0.00,          0,     0.00,          0,     0.00
Transformer.T_3048,   0.119421,   -38.85,   0.119148,  -158.74,   0.119272,    81.25, 0.000252797,   113.59, 3.09683E-9,   118.57,     7.9231,   141.15,    7.90498,    21.26,    7.91321,   -98.75,  0.0167721,   -66.41, 2.05588E-7,   118.51,          0,     0.00,          0,     0.00,          0,     0.00,          0,     0.00,          0,     0.00
Transformer.T_3049,  0.0748334,   -53.78,  0.0746625,  -173.67,  0.0747401,    66.32, 0.00015817,    98.65, 3.09685E-9,   118.57,    4.96486,   126.22,    4.95352,     6.33,    4.95867,  -113.68,   0.010494,   -81.35, 2.05504E-7,   118.53,          0,     0.00,          0,     0.00,          0,     0.00,          0,     0.00,          0,     0.00
Transformer.T_3050,   0.118578,   -53.79,   0.118307,  -173.68,    0.11843,    66.31, 0.000250874,    98.69, 3.09685E-9,   118.57,    7.86718,   126.21,    7.84918,     6.32,    7.85735,  -113.69,  0.0166445,   -81.31, 2.05528E-7,   118.50,          0,     0.00,          0,     0.00,          0,     0.00,          0,     0.00,          0,     0.00
Transformer.T_3051,   0.109265,   -55.21,   0.109015,  -175.10,   0.109129,    64.90, 0.000231111,    97.27, 3.09687E-9,   118.57,    7.24926,   124.79,    7.23269,     4.90,    7.24021,  -115.10,  0.0153333,   -82.73, 2.05518E-7,   118.51,          0,     0.00,          0,     0.00,          0,     0.00,          0,     0.00,          0,     0.00
Transformer.T_3052,   0.280209,   -56.58,   0.279564,  -176.46,   0.279857,    63.53, 0.000594782,    96.12, 3.09685E-9,   118.57,    18.5907,   123.42,     18.548,     3.54,    18.5674,  -116.47,  0.0394615,   -83.88, 2.05592E-7,   118.41,          0,     0.00,          0,     0.00,          0,     0.00,          0,     0.00,          0,     0.00
Transformer.T_3054,   0.110727,   -53.79,   0.110487,  -173.69,   0.110572,    66.32, 0.000222475,    94.79, 2.88639E-9,   111.43,    7.34625,   126.22,    7.33032,     6.31,    7.33595,  -113.68,  0.0147603,   -85.21,  1.9157E-7,   111.37,          0,     0.00,          0,     0.00,          0,     0.00,          0,     0.00,          0,     0.00
Transformer.T_3056,   0.498582,  -170.62,   0.498582,     9.38,          0,     0.00,          0,     0.00, 2.39647E-6,   119.40,    16.5522,     9.38,    16.5523,  -170.62,          0,     0.00,          0,     0.00, 0.000158837,   119.32,    16.5523,     9.38,    16.5522,  -170.62,          0,     0.00,          0,     0.00, 0.000317674,   -60.68
Transformer.T_3057,   0.504774,  -176.51,   0.504773,     3.49,          0,     0.00,          0,     0.00, 2.39643E-6,   119.40,    16.7577,     3.49,    16.7578,  -176.51,          0,     0.00,          0,     0.00, 0.000158811,   119.33,    16.7579,     3.49,    16.7577,  -176.51,          0,     0.00,          0,     0.00, 0.000317622,   -60.67
Transformer.T_3058,   0.451539,  -168.87,   0.451538,    11.13,          0,     0.00,          0,     0.00,  2.3964E-6,   119.40,    14.9904,    11.13,    14.9905,  -168.87,          0,     0.00,          0,     0.00, 0.000158864,   119.33,    14.9905,    11.13,    14.9904,  -168.87,          0,     0.00,          0,     0.00, 0.000317729,   -60.67
Transformer.T_3059,   0.592647,  -175.18,   0.592646,     4.82,          0,     0.00,          0,     0.00, 2.39636E-6,   119.40,     19.675,     4.83,    19.6751,  -175.17,          0,     0.00,          0,     0.00, 0.000158758,   119.32,    19.6752,     4.82,     19.675,  -175.17,          0,     0.00,          0,     0.00, 0.000317516,   -60.68
Transformer.T_3060,   0.471721,  -168.87,    0.47172,    11.13,          0,     0.00,          0,     0.00, 2.39636E-6,   119.40,    15.6604,    11.13,    15.6605,  -168.87,          0,     0.00,          0,     0.00, 0.00015885,   119.32,    15.6605,    11.13,    15.6604,  -168.87,          0,     0.00,          0,     0.00, 0.000317701,   -60.68
Transformer.T_3061,   0.164812,  -166.89,   0.164812,    13.11,          0,     0.00,          0,     0.00, 2.39635E-6,   119.40,    5.47148,    13.11,    5.47152,  -166.89,          0,     0.00,          0,     0.00, 0.000159023,   119.37,    5.47157,    13.11,    5.47148,  -166.89,          0,     0.00,          0,     0.00, 0.000318046,   -60.63
Transformer.T_3062,   0.125887,  -175.12,   0.125886,     4.88,          0,     0.00,          0,     0.00, 2.39634E-6,   119.40,    4.17916,     4.89,    4.17922,  -175.12,          0,     0.00,          0,     0.00, 0.000159036,   119.38,    4.17929,     4.88,    4.17916,  -175.11,          0,     0.00,          0,     0.00, 0.000318071,   -60.62
Transformer.T_3063,   0.857934,  -170.68,   0.857933,     9.32,          0,     0.00,          0,     0.00, 2.39626E-6,   119.40,    28.4822,     9.32,    28.4823,  -170.68,          0,     0.00,          0,     0.00, 0.000158619,   119.27,    28.4823,     9.32,    28.4822,  -170.68,          0,     0.00,          0,     0.00, 0.000317237,   -60.73
Transformer.T_3064,    1.00386,  -167.02,    1.00386,    12.98,          0,     0.00,          0,     0.00, 2.39622E-6,   119.40,    33.3267,    12.98,    33.3268,  -167.02,          0,     0.00,          0,     0.00, 0.00015856,   119.24,    33.3268,    12.98,    33.3267,  -167.02,          0,     0.00,          0,     0.00, 0.00031712,   -60.76
Transformer.T_3065,   0.369346,  -170.61,   0.369346,     9.39,          0,     0.00,          0,     0.00, 2.39618E-6,   119.40,    12.2617,     9.39,    12.2618,  -170.61,          0,     0.00,          0,     0.00, 0.000158891,   119.34,    12.2618,     9.39,    12.2617,  -170.61,          0,     0.00,          0,     0.00, 0.000317782,   -60.66
Transformer.T_3066,   0.446825,  -176.50,   0.446824,     3.50,          0,     0.00,          0,     0.00, 2.39616E-6,   119.40,    14.8339,     3.50,     14.834,  -176.50,          0,     0.00,          0,     0.00, 0.000158829,   119.34,     14.834,     3.50,    14.8339,  -176.50,          0,     0.00,          0,     0.00, 0.000317657,   -60.66
Transformer.T_3067,   0.807231,  -168.92,    0.80723,    11.08,          0,     0.00,          0,     0.00, 2.39614E-6,   119.39,     26.799,    11.08,     26.799,  -168.92,          0,     0.00,          0,     0.00, 0.00015865,   119.27,    26.7991,    11.08,     26.799,  -168.92,          0,     0.00,          0,     0.00, 0.000317299,   -60.73
Transformer.T_3070,  0.0351566,   -38.86,  0.0350647,  -158.72,  0.0351147,    81.26, 0.0000819906,   115.45, 3.70772E-9,   123.28,    2.33249,   141.14,    2.32639,    21.28,    2.32971,   -98.73, 0.00543976,   -64.55,  2.4603E-7,   123.26,          0,     0.00,          0,     0.00,          0,     0.00,          0,     0.00,          0,     0.00
Transformer.T_3071,  0.0938696,   -48.95,  0.0936239,  -168.82,  0.0937575,    71.17, 0.000219194,   105.44, 3.70772E-9,   123.28,    6.22785,   131.05,    6.21155,    11.19,    6.22041,  -108.83,  0.0145427,   -74.56, 2.46056E-7,   123.23,          0,     0.00,          0,     0.00,          0,     0.00,          0,     0.00,          0,     0.00
Transformer.T_3072,  0.0817674,   -38.88,  0.0815535,  -158.74,  0.0816698,    81.25, 0.000190933,   115.48, 3.70773E-9,   123.28,    5.42493,   141.13,    5.41074,    21.26,    5.41846,   -98.75,  0.0126677,   -64.52,  2.4608E-7,   123.24,          0,     0.00,          0,     0.00,          0,     0.00,          0,     0.00,          0,     0.00
Transformer.T_3073,   0.104087,   -55.24,   0.103815,  -175.11,   0.103963,    64.88, 0.000243049,    99.17, 3.70772E-9,   123.28,    6.90574,   124.76,    6.88766,     4.89,    6.89749,  -115.12,  0.0161254,   -80.83, 2.46038E-7,   123.22,          0,     0.00,          0,     0.00,          0,     0.00,          0,     0.00,          0,     0.00
Transformer.T_3074,    0.21749,   -55.26,   0.216918,  -175.13,   0.217229,    64.86, 0.000509044,    99.31, 3.70772E-9,   123.28,    14.4296,   124.74,    14.3916,     4.88,    14.4123,  -115.14,  0.0337731,   -80.69, 2.46088E-7,   123.16,          0,     0.00,          0,     0.00,          0,     0.00,          0,     0.00,          0,     0.00
Transformer.T_3077,    1.82247,   -52.54,     1.8176,  -172.40,    1.82031,    67.58,  0.0043477,   102.13, 4.21678E-8,   123.96,    120.913,   127.46,     120.59,     7.60,     120.77,  -112.42,   0.288453,   -77.87, 2.80472E-6,   123.85,          0,     0.00,          0,     0.00,          0,     0.00,          0,     0.00,          0,     0.00
Transformer.T_3078,   0.182039,   -55.26,   0.181553,  -175.12,   0.181824,    64.86, 0.000431494,    99.60, 3.79511E-9,   123.96,    12.0775,   124.74,    12.0453,     4.88,    12.0633,  -115.14,   0.028628,   -80.40, 2.51867E-7,   123.86,          0,     0.00,          0,     0.00,          0,     0.00,          0,     0.00,          0,     0.00
Transformer.T_3081,  0.0671865,   -44.85,  0.0669949,  -164.69,  0.0671111,    75.29, 0.000167858,   111.17, 4.16883E-9,   126.53,    4.45753,   135.15,    4.44483,    15.31,    4.45253,  -104.71,  0.0111367,   -68.83, 2.76642E-7,   126.49,          0,     0.00,          0,     0.00,          0,     0.00,          0,     0.00,          0,     0.00
Transformer.T_3083,   0.483763,   -42.33,   0.483763,   137.67,          0,     0.00,          0,     0.00, 2.39032E-6,  -120.77,    16.0603,   137.67,    16.0603,   -42.33,          0,     0.00,          0,     0.00, 0.000158468,  -120.85,    16.0603,   137.67,    16.0603,   -42.33,          0,     0.00,          0,     0.00, 0.000316936,    59.15
Transformer.T_3084,   0.289894,   -47.08,   0.289893,   132.92,          0,     0.00,          0,     0.00, 2.39024E-6,  -120.77,    9.62402,   132.92,    9.62406,   -47.08,          0,     0.00,          0,     0.00, 0.000158549,  -120.82,     9.6241,   132.92,    9.62402,   -47.08,          0,     0.00,          0,     0.00, 0.000317098,    59.18
Transformer.T_3085,   0.864304,   -44.99,   0.864304,   135.01,          0,     0.00,          0,     0.00, 2.39004E-6,  -120.77,    28.6937,   135.01,    28.6938,   -44.99,          0,     0.00,          0,     0.00, 0.000158241,  -120.92,    28.6938,   135.01,    28.6937,   -44.99,          0,     0.00,          0,     0.00, 0.000316481,    59.08
Transformer.T_3086,   0.312631,   -52.38,    0.31263,   127.62,          0,     0.00,          0,     0.00, 2.38995E-6,  -120.77,    10.3788,   127.62,    10.3789,   -52.38,          0,     0.00,          0,     0.00, 0.000158506,  -120.82,     10.379,   127.62,    10.3788,   -52.38,          0,     0.00,          0,     0.00, 0.000317011,    59.18
Transformer.T_3087,   0.552018,   -53.92,   0.552017,   126.08,          0,     0.00,          0,     0.00, 2.38989E-6,  -120.77,    18.3262,   126.08,    18.3262,   -53.92,          0,     0.00,          0,     0.00, 0.000158357,  -120.85,    18.3263,   126.08,    18.3262,   -53.92,          0,     0.00,          0,     0.00, 0.000316715,    59.15
Transformer.T_3088,    1.06416,   -42.44,    1.06416,   137.56,          0,     0.00,          0,     0.00, 2.38981E-6,  -120.78,    35.3289,   137.56,    35.3289,   -42.44,          0,     0.00,          0,     0.00, 0.000158143,  -120.96,    35.3289,   137.56,    35.3289,   -42.44,          0,     0.00,          0,     0.00, 0.000316285,    59.04
Transformer.T_3089,    0.10996,   -50.74,    0.10996,   129.26,          0,     0.00,          0,     0.00,  2.3898E-6,  -120.78,    3.65044,   129.26,    3.65049,   -50.74,          0,     0.00,          0,     0.00, 0.000158614,  -120.79,    3.65055,   129.26,    3.65044,   -50.74,          0,     0.00,          0,     0.00, 0.000317228,    59.21
Transformer.T_3090,   0.404464,   -38.96,   0.404464,   141.04,          0,     0.00,          0,     0.00, 2.38976E-6,  -120.78,    13.4277,   141.04,    13.4277,   -38.96,          0,     0.00,          0,     0.00, 0.000158483,  -120.85,    13.4277,   141.04,    13.4277,   -38.96,          0,     0.00,          0,     0.00, 0.000316965,    59.15
Transformer.T_3091,   0.327091,   -47.12,   0.327091,   132.88,          0,     0.00,          0,     0.00, 1.59317E-6,  -120.78,     10.859,   132.88,     10.859,   -47.12,          0,     0.00,          0,     0.00, 0.000105586,  -120.86,     10.859,   132.88,     10.859,   -47.12,          0,     0.00,          0,     0.00, 0.000211173,    59.14
Transformer.T_3093,   0.580261,   -55.34,    0.58026,   124.66,          0,     0.00,          0,     0.00, 2.39024E-6,  -120.77,    19.2638,   124.66,    19.2639,   -55.34,          0,     0.00,          0,     0.00, 0.000158359,  -120.85,    19.2639,   124.66,    19.2638,   -55.34,          0,     0.00,          0,     0.00, 0.000316718,    59.15
Transformer.T_3094,   0.389876,   -38.95,   0.389876,   141.05,          0,     0.00,          0,     0.00,  2.3902E-6,  -120.77,    12.9434,   141.05,    12.9434,   -38.95,          0,     0.00,          0,     0.00, 0.000158519,  -120.84,    12.9434,   141.05,    12.9434,   -38.95,          0,     0.00,          0,     0.00, 0.000317038,    59.16
Transformer.T_3095,   0.777883,   -50.83,   0.777882,   129.17,          0,     0.00,          0,     0.00, 2.39018E-6,  -120.77,    25.8246,   129.17,    25.8247,   -50.83,          0,     0.00,          0,     0.00, 0.00015826,  -120.88,    25.8248,   129.17,    25.8246,   -50.83,          0,     0.00,          0,     0.00, 0.000316521,    59.12
Transformer.T_3096,   0.370154,   -49.02,   0.370153,   130.98,          0,     0.00,          0,     0.00, 2.39012E-6,  -120.77,    12.2885,   130.98,    12.2886,   -49.02,          0,     0.00,          0,     0.00, 0.000158493,  -120.83,    12.2886,   130.98,    12.2885,   -49.02,          0,     0.00,          0,     0.00, 0.000316985,    59.17
Transformer.T_3097,     1.4669,   -50.93,     1.4669,   129.07,          0,     0.00,          0,     0.00,  2.3901E-6,  -120.77,    48.6993,   129.07,    48.6993,   -50.93,          0,     0.00,          0,     0.00, 0.000157863,  -120.99,    48.6994,   129.07,    48.6993,   -50.93,          0,     0.00,          0,     0.00, 0.000315727,    59.01
Transformer.T_3098,   0.867186,  -173.77,   0.867184,     6.23,          0,     0.00,          0,     0.00, 3.19661E-6,   119.40,    28.7893,     6.23,    28.7894,  -173.77,          0,     0.00,          0,     0.00, 0.000211752,   119.30,    28.7895,     6.23,    28.7893,  -173.77,          0,     0.00,          0,     0.00, 0.000423505,   -60.70
Transformer.T_3099,   0.551417,  -158.82,   0.551417,    21.18,          0,     0.00,          0,     0.00, 2.39744E-6,   119.39,    18.3063,    21.18,    18.3063,  -158.82,          0,     0.00,          0,     0.00, 0.000158923,   119.29,    18.3064,    21.18,    18.3063,  -158.82,          0,     0.00,          0,     0.00, 0.000317847,   -60.71
Transformer.T_3101,   0.327785,    63.49,   0.327784,  -116.51,          0,     0.00,          0,     0.00, 2.39279E-6,    -0.63,    10.8819,  -116.51,     10.882,    63.49,          0,     0.00,          0,     0.00, 0.000158677,    -0.67,    10.8821,  -116.51,    10.8819,    63.49,          0,     0.00,          0,     0.00, 0.000317353,   179.33
Transformer.T_3102,    1.05816,    72.94,    1.05816,  -107.06,          0,     0.00,          0,     0.00, 2.39274E-6,    -0.63,    35.1294,  -107.06,    35.1294,    72.94,          0,     0.00,          0,     0.00,  0.0001583,    -0.80,    35.1295,  -107.06,    35.1294,    72.94,          0,     0.00,          0,     0.00,  0.0003166,   179.20
Transformer.T_3103,   0.893775,    67.70,   0.893773,  -112.30,          0,     0.00,          0,     0.00,  3.1903E-6,    -0.63,     29.672,  -112.30,    29.6721,    67.70,          0,     0.00,          0,     0.00, 0.000211328,    -0.73,    29.6722,  -112.30,     29.672,    67.70,          0,     0.00,          0,     0.00, 0.000422656,   179.27
Transformer.T_3104,    1.13609,    71.08,    1.13609,  -108.91,          0,     0.00,          0,     0.00, 6.38069E-6,    -0.63,    37.7165,  -108.91,    37.7166,    71.09,          0,     0.00,          0,     0.00, 0.000422996,    -0.72,    37.7168,  -108.92,    37.7165,    71.09,          0,     0.00,          0,     0.00, 0.000845993,   179.28
Transformer.T_3105,   0.384883,    77.82,   0.384883,  -102.18,          0,     0.00,          0,     0.00, 2.39274E-6,    -0.63,    12.7776,  -102.17,    12.7776,    77.83,          0,     0.00,          0,     0.00, 0.000158679,    -0.70,    12.7776,  -102.18,    12.7776,    77.83,          0,     0.00,          0,     0.00, 0.000317357,   179.30
Transformer.T_3106,    1.30522,    67.71,    1.30522,  -112.29,          0,     0.00,          0,     0.00, 6.38056E-6,    -0.63,    43.3315,  -112.29,    43.3317,    67.71,          0,     0.00,          0,     0.00, 0.000422845,    -0.73,    43.3318,  -112.29,    43.3315,    67.71,          0,     0.00,          0,     0.00, 0.00084569,   179.27
Transformer.T_3108,   0.280334,   -47.09,   0.280334,   132.91,          0,     0.00,          0,     0.00, 2.38927E-6,  -120.78,    9.30666,   132.91,    9.30671,   -47.09,          0,     0.00,          0,     0.00, 0.00015849,  -120.83,    9.30675,   132.91,    9.30666,   -47.09,          0,     0.00,          0,     0.00, 0.000316981,    59.17
Transformer.T_3109,    1.91041,   -56.86,    1.91041,   123.14,          0,     0.00,          0,     0.00, 2.38919E-6,  -120.78,     63.423,   123.14,    63.4231,   -56.86,          0,     0.00,          0,     0.00, 0.000157478,  -121.02,    63.4231,   123.14,     63.423,   -56.86,          0,     0.00,          0,     0.00, 0.000314955,    58.98
Transformer.T_3110,    1.19892,   -39.07,    1.19892,   140.93,          0,     0.00,          0,     0.00, 3.18552E-6,  -120.78,    39.8026,   140.93,    39.8026,   -39.07,          0,     0.00,          0,     0.00, 0.000210975,  -120.96,    39.8026,   140.93,    39.8026,   -39.07,          0,     0.00,          0,     0.00, 0.00042195,    59.04
Transformer.T_3111,    1.25674,   -47.20,    1.25674,   132.80,          0,     0.00,          0,     0.00, 3.18542E-6,  -120.78,    41.7221,   132.80,    41.7221,   -47.20,          0,     0.00,          0,     0.00, 0.000210852,  -120.94,    41.7222,   132.80,    41.7221,   -47.20,          0,     0.00,          0,     0.00, 0.000421705,    59.06
Transformer.T_3112,     1.1691,   -39.06,     1.1691,   140.94,          0,     0.00,          0,     0.00, 3.18537E-6,  -120.78,    38.8128,   140.94,    38.8128,   -39.06,          0,     0.00,          0,     0.00, 0.000210979,  -120.95,    38.8128,   140.94,    38.8128,   -39.06,          0,     0.00,          0,     0.00, 0.000421957,    59.05
Transformer.T_3114,   0.700776,  -175.20,   0.700775,     4.80,          0,     0.00,          0,     0.00, 2.39707E-6,   119.39,    23.2648,     4.80,    23.2648,  -175.20,          0,     0.00,          0,     0.00, 0.00015874,   119.30,    23.2649,     4.80,    23.2648,  -175.20,          0,     0.00,          0,     0.00, 0.00031748,   -60.70
Transformer.T_3115,   0.972023,  -158.86,   0.972022,    21.14,          0,     0.00,          0,     0.00, 3.19604E-6,   119.39,    32.2699,    21.14,    32.2699,  -158.86,          0,     0.00,          0,     0.00, 0.000211775,   119.25,    32.2699,    21.14,    32.2699,  -158.86,          0,     0.00,          0,     0.00, 0.000423551,   -60.75
Transformer.T_3116,   0.944731,  -167.02,    0.94473,    12.98,          0,     0.00,          0,     0.00, 2.39702E-6,   119.39,    31.3638,    12.98,    31.3638,  -167.02,          0,     0.00,          0,     0.00, 0.000158645,   119.24,    31.3639,    12.98,    31.3638,  -167.02,          0,     0.00,          0,     0.00, 0.000317291,   -60.76
Transformer.T_3117,   0.505888,  -176.52,   0.505887,     3.48,          0,     0.00,          0,     0.00, 2.39701E-6,   119.39,    16.7947,     3.48,    16.7948,  -176.52,          0,     0.00,          0,     0.00, 0.000158849,   119.33,    16.7948,     3.48,    16.7947,  -176.52,          0,     0.00,          0,     0.00, 0.000317698,   -60.67
Transformer.T_3120,   0.400002,  -158.81,   0.400001,    21.19,          0,     0.00,          0,     0.00, 2.39622E-6,   119.38,    13.2795,    21.19,    13.2795,  -158.81,          0,     0.00,          0,     0.00, 0.000158914,   119.30,    13.2796,    21.19,    13.2795,  -158.81,          0,     0.00,          0,     0.00, 0.000317827,   -60.70
Transformer.T_3121,   0.361946,  -164.76,   0.361945,    15.24,          0,     0.00,          0,     0.00, 2.39619E-6,   119.38,    12.0161,    15.25,    12.0161,  -164.76,          0,     0.00,          0,     0.00, 0.000158912,   119.31,    12.0162,    15.24,    12.0161,  -164.75,          0,     0.00,          0,     0.00, 0.000317824,   -60.69
Transformer.T_3122,   0.571333,  -175.19,   0.571332,     4.81,          0,     0.00,          0,     0.00, 2.39618E-6,   119.37,    18.9674,     4.81,    18.9675,  -175.19,          0,     0.00,          0,     0.00, 0.000158759,   119.30,    18.9675,     4.81,    18.9674,  -175.19,          0,     0.00,          0,     0.00, 0.000317518,   -60.70
Transformer.T_3123,   0.697158,  -176.55,   0.697157,     3.45,          0,     0.00,          0,     0.00, 2.39622E-6,   119.38,    23.1446,     3.45,    23.1447,  -176.55,          0,     0.00,          0,     0.00, 0.00015868,   119.29,    23.1448,     3.45,    23.1446,  -176.55,          0,     0.00,          0,     0.00, 0.000317361,   -60.71
Transformer.T_3124,    0.44737,  -176.52,   0.447369,     3.48,          0,     0.00,          0,     0.00, 2.39619E-6,   119.38,     14.852,     3.48,    14.8521,  -176.52,          0,     0.00,          0,     0.00, 0.00015883,   119.32,    14.8521,     3.48,     14.852,  -176.52,          0,     0.00,          0,     0.00, 0.00031766,   -60.68
Transformer.T_3125,   0.104204,  -176.48,   0.104204,     3.52,          0,     0.00,          0,     0.00, 9.58455E-7,   119.37,     3.4594,     3.52,    3.45943,  -176.48,          0,     0.00,          0,     0.00, 0.000063568,   119.36,    3.45946,     3.52,     3.4594,  -176.48,          0,     0.00,          0,     0.00, 0.000127136,   -60.64
Transformer.T_3126,    0.83989,  -173.81,   0.839889,     6.19,          0,     0.00,          0,     0.00, 2.39602E-6,   119.37,    27.8832,     6.19,    27.8832,  -173.81,          0,     0.00,          0,     0.00, 0.000158595,   119.26,    27.8833,     6.19,    27.8832,  -173.81,          0,     0.00,          0,     0.00, 0.00031719,   -60.74
Transformer.T_3127,   0.775732,  -162.24,   0.775732,    17.76,          0,     0.00,          0,     0.00, 2.39596E-6,   119.37,    25.7533,    17.76,    25.7533,  -162.24,          0,     0.00,          0,     0.00, 0.000158696,   119.24,    25.7533,    17.76,    25.7533,  -162.24,          0,     0.00,          0,     0.00, 0.000317392,   -60.76
Transformer.T_3128,   0.479359,  -168.90,   0.479358,    11.10,          0,     0.00,          0,     0.00, 2.39592E-6,   119.37,     15.914,    11.10,    15.9141,  -168.90,          0,     0.00,          0,     0.00, 0.000158817,   119.30,    15.9141,    11.10,     15.914,  -168.90,          0,     0.00,          0,     0.00, 0.000317634,   -60.70
Transformer.T_3129,   0.255471,  -168.86,   0.255471,    11.14,          0,     0.00,          0,     0.00, 2.39588E-6,   119.37,    8.48123,    11.14,    8.48128,  -168.86,          0,     0.00,          0,     0.00, 0.000158939,   119.33,    8.48133,    11.14,    8.48123,  -168.86,          0,     0.00,          0,     0.00, 0.000317878,   -60.67
Transformer.T_3130,   0.460687,  -162.19,   0.460686,    17.81,          0,     0.00,          0,     0.00, 2.39586E-6,   119.37,    15.2942,    17.81,    15.2942,  -162.19,          0,     0.00,          0,     0.00, 0.000158848,   119.29,    15.2942,    17.81,    15.2942,  -162.19,          0,     0.00,          0,     0.00, 0.000317696,   -60.71
...